13
Atoms
C 8.710887 -0.619405 0.000000
C 10.000000 0.174700 0.000000
O 9.999999 1.419472 0.000000
C 11.289114 -0.619403 0.000000
H 11.336134 -1.270098 0.882285
H 12.148042 0.054637 0.000000
H 11.336134 -1.270098 -0.882285
H 8.663868 -1.270100 0.882285
H 8.663868 -1.270100 -0.882285
H 7.851959 0.054634 0.000000
I 1.313180 1.559760 0.150100
Pb 3.089160 1.580860 0.051400
I 5.304460 1.551190 -0.279770
