121
Atoms
Pb 0.521093 4.595000 1.323730
C 4.682630 3.144820 0.187443
C 4.442910 3.358980 -1.172200
C 5.374110 2.931660 -2.124620
C 6.544420 2.286770 -1.706570
C 6.782390 2.071500 -0.342804
Cl 3.493570 3.641670 1.331240
Cl 2.976750 4.135440 -1.648820
H 6.031910 2.335500 1.660620
H 7.682000 1.566110 -0.022857
H 7.264090 1.951540 -2.439030
H 5.195040 3.095010 -3.177840
C 5.851180 2.504250 0.608197
C -1.819330 5.446010 -2.493110
C -1.032020 6.594110 -2.386190
C -1.413100 7.775120 -3.030780
C -2.590040 7.802100 -3.788650
C -3.379620 6.649440 -3.900130
Cl -1.337610 4.034310 -1.623790
Cl 0.375032 6.541590 -1.390850
H -3.609160 4.583510 -3.337280
H -4.285940 6.672280 -4.488980
H -2.891350 8.714820 -4.283540
H -0.809670 8.666740 -2.936950
C -2.994830 5.468190 -3.251940
C -3.222070 4.276150 3.768180
C -3.541510 3.499240 2.652150
C -4.877090 3.236340 2.334660
C -5.895910 3.756660 3.141160
C -5.577340 4.538390 4.259320
Cl -1.560790 4.604860 4.098650
Cl -2.266620 2.920040 1.642770
H -3.996020 5.417700 5.428910
H -6.368360 4.949170 4.871600
H -6.929620 3.559960 2.895060
H -5.123880 2.640040 1.468280
C -4.237760 4.798880 4.576090
C 0.560621 7.408990 4.774220
C 1.405480 6.402910 5.245860
C 1.720260 6.326720 6.606100
C 1.186340 7.268650 7.493970
C 0.330017 8.272780 7.022300
Cl 0.184399 7.445840 3.091090
Cl 2.017750 5.244910 4.123670
H -0.651160 9.115210 5.300700
H -0.089374 8.993160 7.710490
H 1.431360 7.217440 8.545350
H 2.371190 5.547730 6.973160
C 0.013527 8.343170 5.660000
C 1.932430 0.502106 -0.985689
C 2.902950 -0.166679 -0.231557
C 3.723100 -1.127350 -0.832698
C 3.564070 -1.431580 -2.189760
C 2.581200 -0.776026 -2.941940
Cl 0.965913 1.730340 -0.245404
Cl 3.088990 0.206659 1.440620
H 1.014310 0.700160 -2.926650
H 2.455420 -1.018380 -3.988080
H 4.194870 -2.178200 -2.651300
H 4.474710 -1.638390 -0.248618
C 1.769280 0.195371 -2.341940
C -3.366790 7.400130 0.269844
C -2.982130 8.721670 0.023169
C -3.893700 9.625930 -0.531719
C -5.192650 9.203260 -0.839128
C -5.576550 7.878910 -0.591404
Cl -2.224590 6.289650 0.931679
Cl -1.373720 9.218140 0.395202
H -4.963070 5.956470 0.156009
H -6.578950 7.551020 -0.825459
H -5.898350 9.900940 -1.266560
H -3.597070 10.647600 -0.720304
C -4.663010 6.975820 -0.036240
C -0.864300 -0.106269 3.699410
C -0.223936 0.992918 4.281300
C -0.343097 1.224440 5.655320
C -1.095520 0.353187 6.450740
C -1.737740 -0.746925 5.868520
Cl -0.729950 -0.363842 2.000780
Cl 0.681182 2.080360 3.291100
H -2.120980 -1.820530 4.039170
H -2.321400 -1.417260 6.483530
H -1.178460 0.530884 7.513240
H 0.145957 2.073180 6.109010
C -1.622610 -0.975493 4.491540
C 5.471910 6.801770 0.960527
C 4.326070 7.030450 0.193031
C 4.435690 7.282130 -1.178800
C 5.697850 7.302690 -1.783630
C 6.845470 7.063410 -1.017350
Cl 5.307380 6.496130 2.648960
Cl 2.771940 6.955690 0.938954
H 7.621770 6.629600 0.945211
H 7.820240 7.079800 -1.482870
H 5.786180 7.508010 -2.841260
H 3.551280 7.456410 -1.774530
C 6.734200 6.811600 0.355931
C 4.232440 3.241360 6.854890
C 5.249750 3.781780 6.062510
C 6.262890 4.546380 6.651670
C 6.264440 4.759980 8.035810
C 5.253190 4.205780 8.830830
Cl 2.968790 2.328570 6.120820
Cl 5.258130 3.485830 4.364320
H 3.453580 3.023100 8.850240
H 5.257280 4.359240 9.900300
H 7.051530 5.344620 8.489610
H 7.046070 4.966140 6.037850
C 4.233520 3.451720 8.238290
C -3.980550 9.460180 3.370360
C -5.340270 9.377640 3.053030
C -6.020840 10.509200 2.588690
C -5.340450 11.723400 2.438350
C -3.975820 11.802100 2.745030
Cl -3.143770 8.059150 3.926390
Cl -6.167180 7.872920 3.209110
H -2.243080 10.730700 3.441090
H -3.444980 12.735200 2.624190
H -5.865410 12.598400 2.082500
H -7.070970 10.442400 2.343800
C -3.296770 10.670500 3.211450
